contingency/no_load/40pc/TNB_DUMA_EXP_SEQVOLTAGES.CSV
Bus,  V1,  p.u.,Base kV, V2, %V2/V1, V0, %V0/V1, Vresidual, %NEMA
"PPU_DUMA_33KV",    19019.5,   0.99826,    33.00, 9.26636E-006, 4.872E-008, 1.23938E-006, 6.516E-009, 3.71814E-006, 6.583E-009
"PPU_DUMA_11KV",    6169.35,   0.97142,    11.00, 3.22685E-006, 5.23E-008, 1.23072E-007, 1.995E-009, 3.69216E-007, 6.978E-009
"RPPLNGI2",    6236.24,   0.98195,    11.00, 3.2571E-006, 5.223E-008, 1.24244E-007, 1.992E-009, 3.72733E-007, 6.899E-009
"PDTJLNMASJID",    6286.54,   0.98987,    11.00, 3.27984E-006, 5.217E-008, 1.25292E-007, 1.993E-009, 3.75877E-007, 6.841E-009
"BELLA",    6320.13,   0.99516,    11.00, 3.29502E-006, 5.214E-008, 1.26069E-007, 1.995E-009, 3.78207E-007, 6.802E-009
"PSTPDGN",    6336.94,   0.99781,    11.00, 3.30261E-006, 5.212E-008, 1.2648E-007, 1.996E-009, 3.79439E-007, 6.783E-009
"PAMDRA",    6176.19,    0.9725,    11.00, 3.22998E-006, 5.23E-008, 1.23165E-007, 1.994E-009, 3.69497E-007, 6.97E-009
"DUMA4",    6199.22,   0.97612,    11.00, 3.24057E-006, 5.227E-008, 1.26327E-007, 2.038E-009, 3.7898E-007, 6.946E-009
"PLSDRA",    6250.33,   0.98417,    11.00, 3.26416E-006, 5.222E-008, 1.4229E-007, 2.277E-009, 4.2687E-007, 6.895E-009
"SSU_UPTWRES_IR1",    6258.85,   0.98551,    11.00, 3.2681E-006, 5.222E-008, 1.42717E-007, 2.28E-009, 4.28151E-007, 6.887E-009
"ATRIA_1",     6260.2,   0.98573,    11.00, 3.26799E-006, 5.22E-008, 1.24709E-007, 1.992E-009, 3.74127E-007, 6.872E-009
"HAWKER",     6275.8,   0.98818,    11.00, 3.2752E-006, 5.219E-008, 1.39868E-007, 2.229E-009, 4.19603E-007, 6.854E-009
"PRMTE",    6230.42,   0.98104,    11.00, 3.25509E-006, 5.225E-008, 1.37882E-007, 2.213E-009, 4.13646E-007, 6.915E-009
"PRMTA",    6240.66,   0.98265,    11.00, 3.25982E-006, 5.224E-008, 1.38355E-007, 2.217E-009, 4.15064E-007, 6.905E-009
"PMONTB",    6248.77,   0.98393,    11.00, 3.26355E-006, 5.223E-008, 1.4155E-007, 2.265E-009, 4.24649E-007, 6.897E-009
"DUMA7",    6194.18,   0.97533,    11.00, 3.23797E-006, 5.227E-008, 1.23942E-007, 2.001E-009, 3.71826E-007, 6.946E-009
"HAUS",    6243.85,   0.98315,    11.00, 3.26021E-006, 5.221E-008, 1.55103E-007, 2.484E-009, 4.65309E-007, 6.886E-009
"DUMA6",    6379.38,    1.0045,    11.00, 3.32073E-006, 5.205E-008, 3.57626E-007, 5.606E-009, 1.07288E-006, 6.723E-009
"DUMA13",    6502.01,    1.0238,    11.00, 3.37529E-006, 5.191E-008, 5.8731E-007, 9.033E-009, 1.76193E-006, 6.579E-009
"SSU_DUMA5_IM2",    6518.36,    1.0264,    11.00, 3.38252E-006, 5.189E-008, 5.90336E-007, 9.057E-009, 1.771E-006, 6.559E-009
"PLNGI_B",    6203.57,   0.97681,    11.00, 3.24228E-006, 5.226E-008, 1.2356E-007, 1.992E-009, 3.70681E-007, 6.936E-009
"PLNGI_D",     6220.7,   0.97951,    11.00,  3.25E-006, 5.225E-008, 1.23831E-007, 1.991E-009, 3.71493E-007, 6.916E-009
"PDTLITRAK",    6331.48,   0.99695,    11.00, 3.30156E-006, 5.215E-008, 1.26847E-007, 2.003E-009, 3.80542E-007, 6.812E-009
"DUMA12",       6397,    1.0073,    11.00, 3.33181E-006, 5.208E-008, 1.28732E-007, 2.012E-009, 3.86195E-007, 6.748E-009
"TMNGH4",    6458.66,     1.017,    11.00, 3.36038E-006, 5.203E-008, 1.49624E-007, 2.317E-009, 4.4887E-007, 6.692E-009
"SSU_TMEGAH3_IR1",    6483.31,    1.0209,    11.00, 3.37183E-006, 5.201E-008, 1.61814E-007, 2.496E-009, 4.85441E-007, 6.67E-009
"TMNGH2",    6493.99,    1.0225,    11.00, 3.37679E-006, 5.2E-008, 1.67597E-007, 2.581E-009, 5.02789E-007, 6.661E-009
"SPRK9",    6319.22,   0.99502,    11.00, 3.29495E-006, 5.214E-008, 1.2613E-007, 1.996E-009, 3.78388E-007, 6.809E-009
"BOMBA",    6327.63,   0.99634,    11.00, 3.29877E-006, 5.213E-008, 1.27411E-007, 2.014E-009, 3.82233E-007, 6.799E-009
"SPRK8",    6348.63,   0.99965,    11.00, 3.30834E-006, 5.211E-008, 1.32223E-007, 2.083E-009, 3.96667E-007, 6.777E-009
"SSU_UPTWRES_IM2",    6194.91,   0.97544,    11.00, 3.23851E-006, 5.228E-008, 1.26168E-007, 2.037E-009, 3.78505E-007, 6.949E-009
"MAYBANK",    6229.05,   0.98082,    11.00, 3.25407E-006, 5.224E-008, 1.2718E-007, 2.042E-009, 3.8154E-007, 6.911E-009
"DUMA8",    6235.46,   0.98183,    11.00, 3.25698E-006, 5.223E-008, 1.28563E-007, 2.062E-009, 3.85688E-007, 6.904E-009
"SSU_DSARCNTR_IR1",    6186.58,   0.97413,    11.00, 3.23461E-006, 5.228E-008, 1.23297E-007, 1.993E-009, 3.69892E-007, 6.957E-009
"DUMA9",    6284.22,   0.98951,    11.00, 3.27883E-006, 5.218E-008, 1.25303E-007, 1.994E-009, 3.75908E-007, 6.844E-009
"DUMA1",    6331.12,   0.99689,    11.00, 3.30003E-006, 5.212E-008, 1.2641E-007, 1.997E-009, 3.79229E-007, 6.79E-009
"ELITE",     6347.9,   0.99954,    11.00, 3.30762E-006, 5.211E-008, 1.26833E-007, 1.998E-009, 3.80498E-007, 6.771E-009
"DUMA10",    6250.78,   0.98424,    11.00, 3.26362E-006, 5.221E-008, 1.24427E-007, 1.991E-009, 3.73282E-007, 6.881E-009
"BALAIPOLIS",    6251.63,   0.98438,    11.00, 3.26401E-006, 5.221E-008, 1.24442E-007, 1.991E-009, 3.73328E-007, 6.88E-009
"PPU_DUMA_VCB1",          0,         0,    33.00,          0,        0,          0,        0,          0,        0
